@<TRIPOS>MOLECULE
ZINC00083315
   27    28     0     0     0
SMALL
USER_CHARGES

@<TRIPOS>ATOM
      1 C1         -0.0165    1.3620    0.0095 C.ar      1 <0>        -0.1301
      2 C2          1.1697    2.0834    0.0021 C.ar      1 <0>        -0.0973
      3 C3          2.3856    1.4362   -0.0134 C.ar      1 <0>        -0.1188
      4 C4          2.4281    0.0456   -0.0212 C.ar      1 <0>         0.0981
      5 C5          1.2234   -0.6807   -0.0132 C.ar      1 <0>        -0.1169
      6 C6          0.0021   -0.0041    0.0020 C.ar      1 <0>        -0.1023
      7 C7          1.6036   -2.0953   -0.0245 C.2       1 <0>        -0.2103
      8 C8          2.9451   -2.1410   -0.0380 C.2       1 <0>         0.0843
      9 N1          3.4551   -0.8713   -0.0363 N.pl3     1 <0>        -0.5900
     10 H1          4.3995   -0.6501   -0.0442 H         1 <0>         0.4213
     11 C9          0.6664   -3.2754   -0.0210 C.3       1 <0>        -0.0460
     12 C10         0.2361   -3.5891   -1.4554 C.3       1 <0>        -0.0416
     13 H2          1.1200   -3.7379   -2.0756 H         1 <0>         0.1302
     14 C11        -0.6016   -4.8418   -1.4659 C.2       1 <0>         0.4881
     15 O1         -1.8116   -4.7672   -1.3360 O.co2     1 <0>        -0.6684
     16 O2         -0.0693   -5.9300   -1.6044 O.co2     1 <0>        -0.6382
     17 N2         -0.5518   -2.4687   -1.9863 N.4       1 <0>        -0.6144
     18 H3         -0.9613    1.8849    0.0259 H         1 <0>         0.1279
     19 H4          1.1388    3.1630    0.0081 H         1 <0>         0.1300
     20 H5          3.3028    2.0064   -0.0198 H         1 <0>         0.1243
     21 H6         -0.9246   -0.5587    0.0082 H         1 <0>         0.1184
     22 H7          3.5346   -3.0459   -0.0490 H         1 <0>         0.1783
     23 H8          1.1742   -4.1414    0.4036 H         1 <0>         0.1117
     24 H9         -0.2127   -3.0396    0.5787 H         1 <0>         0.0903
     25 H10         0.0090   -1.6300   -1.9793 H         1 <0>         0.4140
     26 H11        -0.8356   -2.6756   -2.9322 H         1 <0>         0.4277
     27 H12        -1.3700   -2.3311   -1.4122 H         1 <0>         0.4298
@<TRIPOS>BOND
     1    1    6 ar
     2    1    2 ar
     3    1   18 1
     4    2    3 ar
     5    2   19 1
     6    3    4 ar
     7    3   20 1
     8    4    9 1
     9    4    5 ar
    10    5    6 ar
    11    5    7 1
    12    6   21 1
    13    7    8 2
    14    7   11 1
    15    8    9 1
    16    8   22 1
    17    9   10 1
    18   11   12 1
    19   11   23 1
    20   11   24 1
    21   12   13 1
    22   12   14 1
    23   12   17 1
    24   14   15 2
    25   14   16 1
    26   17   25 1
    27   17   26 1
    28   17   27 1
